9
Electronic Energy: -352435.7545579 a.u.
C          2.84632        0.47034        0.21540
O          3.51133       -0.45993       -0.00260
O          2.26764        1.45605        0.45190
O         -0.78936        1.47171        0.43815
V         -0.95670       -0.32196       -0.10343
O         -1.74934       -0.35708       -1.56498
O         -1.81854       -1.14471        1.05774
O          0.59403       -0.89686       -0.23849
H          0.14768        1.70561        0.51321
